version 2
run General-0-20190108-18:31:59-6364
attr configname General
attr datetime 20190108-18:31:59
attr experiment General
attr inifile omnetpp.ini
attr iterationvars ""
attr iterationvarsf ""
attr measurement ""
attr network Airport
attr processid 6364
attr repetition 0
attr replication #0
attr resultdir results
attr runnumber 0
attr seedset 0
param **.landing.sendInitialMessage true
param **.landing.skyTimer 60s
param **.airstrip.procTimeLanding 10s
param **.airstrip.procTimeTakeoff 20s
param **.takeoff.procTime 20s
param **.parking.procTime 320s

vector 0 Airport.landing LandingRecLength:vector ETV
attr source arrivalLength
attr title "LANDING QUEUE LENGTH, vector"
vector 1 Airport.parking ParkingRecLength:vector ETV
attr source arrivalLength
attr title "PARKING QUEUE LENGTH, vector"
vector 2 Airport.takeoff TakeoffRecLength:vector ETV
attr source arrivalLength
attr title "TAKEOFF QUEUE LENGTH, vector"
0	1	60	1
0	3	60	0
0	6	120	1
0	8	120	0
0	11	180	1
0	13	180	0
0	16	240	1
0	18	240	0
0	21	300	1
0	23	300	0
0	26	360	1
0	28	360	0
0	36	420	1
0	38	420	0
0	46	480	1
0	48	480	0
0	56	540	1
0	58	540	0
0	66	600	1
0	68	600	0
0	76	660	1
0	78	660	0
0	86	720	1
0	88	720	0
0	96	780	1
0	98	780	0
0	106	840	1
0	108	840	0
0	116	900	1
0	118	900	0
0	126	960	1
0	128	960	0
0	136	1020	1
0	138	1020	0
0	146	1080	1
0	148	1080	0
0	156	1140	1
0	158	1140	0
0	166	1200	1
0	168	1200	0
0	176	1260	1
0	178	1260	0
0	186	1320	1
0	188	1320	0
0	196	1380	1
0	198	1380	0
0	206	1440	1
0	208	1440	0
0	216	1500	1
0	218	1500	0
0	226	1560	1
0	228	1560	0
0	236	1620	1
0	238	1620	0
0	246	1680	1
0	248	1680	0
0	256	1740	1
0	258	1740	0
0	266	1800	1
0	268	1800	0
0	276	1860	1
0	278	1860	0
0	286	1920	1
0	288	1920	0
0	296	1980	1
0	298	1980	0
1	5	70	1
1	10	130	2
1	15	190	3
1	20	250	4
1	25	310	5
1	30	370	6
1	31	390	5
1	40	430	6
1	41	450	5
1	50	490	6
1	51	510	5
1	60	550	6
1	61	570	5
1	70	610	6
1	71	630	5
1	80	670	6
1	81	690	5
1	90	730	6
1	91	750	5
1	100	790	6
1	101	810	5
1	110	850	6
1	111	870	5
1	120	910	6
1	121	930	5
1	130	970	6
1	131	990	5
1	140	1030	6
1	141	1050	5
1	150	1090	6
1	151	1110	5
1	160	1150	6
1	161	1170	5
1	170	1210	6
1	171	1230	5
1	180	1270	6
1	181	1290	5
1	190	1330	6
1	191	1350	5
1	200	1390	6
1	201	1410	5
1	210	1450	6
1	211	1470	5
1	220	1510	6
1	221	1530	5
1	230	1570	6
1	231	1590	5
1	240	1630	6
1	241	1650	5
1	250	1690	6
1	251	1710	5
1	260	1750	6
1	261	1770	5
1	270	1810	6
1	271	1830	5
1	280	1870	6
1	281	1890	5
1	290	1930	6
1	291	1950	5
1	300	1990	6
2	32	390	1
2	34	390	0
2	42	450	1
2	44	450	0
2	52	510	1
2	54	510	0
2	62	570	1
2	64	570	0
2	72	630	1
2	74	630	0
2	82	690	1
2	84	690	0
2	92	750	1
2	94	750	0
2	102	810	1
2	104	810	0
2	112	870	1
2	114	870	0
2	122	930	1
2	124	930	0
2	132	990	1
2	134	990	0
2	142	1050	1
2	144	1050	0
2	152	1110	1
2	154	1110	0
2	162	1170	1
2	164	1170	0
2	172	1230	1
2	174	1230	0
2	182	1290	1
2	184	1290	0
2	192	1350	1
2	194	1350	0
2	202	1410	1
2	204	1410	0
2	212	1470	1
2	214	1470	0
2	222	1530	1
2	224	1530	0
2	232	1590	1
2	234	1590	0
2	242	1650	1
2	244	1650	0
2	252	1710	1
2	254	1710	0
2	262	1770	1
2	264	1770	0
2	272	1830	1
2	274	1830	0
2	282	1890	1
2	284	1890	0
2	292	1950	1
2	294	1950	0

